LTspice 24.0.12 for Windows
Circuit: * C:\Users\Kyle\Desktop\FetTesting\simFiles\templateNMos\Draft1.asc
Start Time: Thu Nov 14 00:02:27 2024
solver = Normal
Maximum thread count: 4
tnom = 27
temp = 27
method = modified trap
Instance "m:m1:1": Width narrower than recommended for a level 3 MOSFET.
Direct Newton iteration for .op point succeeded.
Total elapsed time: 0.368 seconds.

