LTspice 24.0.12 for Windows
Circuit: * C:\Users\Kyle\Desktop\FetTesting\simFiles\BSC004NE2LS5ATMA1\x_NMOS_SIM.asc
Start Time: Wed Nov 13 18:16:40 2024
solver = Normal
Maximum thread count: 4
tnom = 27
temp = 25
method = modified trap
Instance "m:u1:1": Width narrower than recommended for a level 3 MOSFET.
Direct Newton iteration for .op point succeeded.
Total elapsed time: 0.111 seconds.

